/* This input file provides the adjustable run-time parameters for version 6 of the Modular Ocean Model (MOM6), a numerical ocean model developed at NOAA-GFDL. Where appropriate, parameters are given in MKS units.

This particular file is for the configuration "channel" and uses ALE scheme of MOM6 on z* grid.

This MOM_input file typically contains only the non-default values that are needed to reproduce this configuration.  A full list of parameters for this configuration can be found in the corresponding MOM_parameter_doc.all file which is generated by the model at run-time.

Created on 22/08/19 by Graeme MacGilchrist [graemem@princeton.edu] 
Updated on 15/09/20 by Hemant Khatri [hkhatri@princeton.edu] */

! === module MOM ===
DEFAULT_2018_ANSWERS = False    !   [Boolean] default = True
                                ! This sets the default value for the various _2018_ANSWERS parameters.
ENABLE_THERMODYNAMICS = True    !   [Boolean] default = True
                                ! If true, Temperature and salinity are used as state variables.
ADIABATIC = False               !   [Boolean] default = False
                                ! There are no diapycnal mass fluxes if ADIABATIC is true. This assumes that KD
                                ! = KDML = 0.0 and that there is no buoyancy forcing, but makes the model faster
                                ! by eliminating subroutine calls.
DT = 1800.0                     !   [s]
                                ! The (baroclinic) dynamics time step.  The time-step that is actually used will
                                ! be an integer fraction of the forcing time-step (DT_FORCING in ocean-only mode
                                ! or the coupling timestep in coupled mode.)
DT_THERM = 7200.0

USE_REGRIDDING = True           !   [Boolean] default = False
                                ! If True, use the ALE algorithm (regridding/remapping). If False, use the
                                ! layered isopycnal algorithm.

BULKMIXEDLAYER = False          !   [Boolean] default = False
                                ! If true, use a Kraus-Turner-like bulk mixed layer with transitional buffer
                                ! layers.  Layers 1 through NKML+NKBL have variable densities. There must be at
                                ! least NKML+NKBL+1 layers if BULKMIXEDLAYER is true. BULKMIXEDLAYER can not be
                                ! used with USE_REGRIDDING. The default is influenced by ENABLE_THERMODYNAMICS.

SAVE_INITIAL_CONDS = True       !   [Boolean] default = False
                                ! If true, write the initial conditions to a file given
                                ! by IC_OUTPUT_FILE.
IC_OUTPUT_FILE = "Initial_state" ! default = "MOM_IC"
                                ! The file into which to write the initial conditions.

!=== module MOM_domains ===
REENTRANT_X = True              !   [Boolean] default = True
REENTRANT_Y = False             !   [Boolean] default = False

NIGLOBAL = 320                  !
                                ! The total number of thickness grid points in the x-direction in the physical
                                ! domain. With STATIC_MEMORY_ this is set in MOM_memory.h at compile time.
NJGLOBAL = 272                  !
                                ! The total number of thickness grid points in the y-direction in the physical
                                ! domain. With STATIC_MEMORY_ this is set in MOM_memory.h at compile time.

!=== module MOM_verticalGrid ===
NK = 75                         ! The number of model layers.  

! === module MOM_EOS ===
!EQN_OF_STATE = "LINEAR"         ! default = "WRIGHT"
                                ! EQN_OF_STATE determines which ocean equation of state should be used.
                                ! Currently, the valid choices are "LINEAR", "UNESCO", "WRIGHT", "NEMO" and
                                ! "TEOS10". This is only used if USE_EOS is true.
!DRHO_DT = -0.2                   !   [kg m-3 K-1] default = -0.2
                                ! When EQN_OF_STATE=LINEAR, this is the partial derivative of density with
                                ! temperature.
!DRHO_DS = 0.8                   !   [kg m-3 PSU-1] default = 0.8
                                ! When EQN_OF_STATE=LINEAR, this is the partial derivative of density with
                                ! salinity.


! === module MOM_fixed_initialization ===
INPUTDIR = "INPUT"              !   default = "."
                                ! The directory in which input files are found.

! === module MOM_coord_initialization ===
COORD_CONFIG = "file"            !
                                ! This specifies how layers are to be defined:
                                !     ALE or none - used to avoid defining layers in ALE mode
                                !     file - read coordinate information from the file
                                !       specified by (COORD_FILE).
                                !     BFB - Custom coords for buoyancy-forced basin case
                                !       based on SST_S, T_BOT and DRHO_DT.
                                !     linear - linear based on interfaces not layers
                                !     layer_ref - linear based on layer densities
                                !     ts_ref - use reference temperature and salinity
                                !     ts_range - use range of temperature and salinity
                                !       (T_REF and S_REF) to determine surface density
                                !       and GINT calculate internal densities.
                                !     gprime - use reference density (RHO_0) for surface
                                !       density and GINT calculate internal densities.
                                !     ts_profile - use temperature and salinity profiles
                                !       (read from COORD_FILE) to set layer densities.
                                !     USER - call a user modified routine.
!TS_RANGE_T_LIGHT = 22.0
!TS_RANGE_T_DENSE = 0.0

COORD_FILE = "layer_coord.nc"   !
                                ! The file from which the coordinate densities are read.

REMAP_UV_USING_OLD_ALG = False  !   [Boolean] default = True
                                ! If true, uses the old remapping-via-a-delta-z method for remapping u and v. If
                                ! false, uses the new method that remaps between grids described by an old and
                                ! new thickness.
  
REGRIDDING_COORDINATE_MODE = "HYCOM1" ! default = "LAYER"
                                ! Coordinate mode for vertical regridding. Choose among the following
                                ! possibilities:  LAYER - Isopycnal or stacked shallow water layers
                                !  ZSTAR, Z* - stretched geopotential z*
                                !  SIGMA_SHELF_ZSTAR - stretched geopotential z* ignoring shelf
                                !  SIGMA - terrain following coordinates
                                !  RHO   - continuous isopycnal
                                !  HYCOM1 - HyCOM-like hybrid coordinate
                                !  SLIGHT - stretched coordinates above continuous isopycnal
                                !  ADAPTIVE - optimize for smooth neutral density surfaces

ALE_COORDINATE_CONFIG="HYBRID:vgrid.nc,sigma2,dz" ! default = "UNIFORM"
                                ! Determines how to specify the coordinate resolution. Valid options are:
                                !  PARAM       - use the vector-parameter ALE_RESOLUTION
                                !  UNIFORM[:N] - uniformly distributed
                                !  FILE:string - read from a file. The string specifies
                                !                the filename and variable name, separated
                                !                by a comma or space, e.g. FILE:lev.nc,dz
                                !                or FILE:lev.nc,interfaces=zw
                                !  WOA09[:N]   - the WOA09 vertical grid (approximately)
                                !  FNC1:string - FNC1:dz_min,H_total,power,precision
                                !  HYBRID:string - read from a file. The string specifies
                                !                the filename and two variable names, separated
                                !                by a comma or space, for sigma-2 and dz. e.g.
                                !                HYBRID:vgrid.nc,sigma2,dz

REMAPPING_SCHEME = "PPM_H4"     ! default = "PLM"
                                ! This sets the reconstruction scheme used for vertical remapping for all
                                ! variables. It can be one of the following schemes: PCM         (1st-order
                                ! accurate)
                                ! PLM         (2nd-order accurate)
                                ! PPM_H4      (3rd-order accurate)
                                ! PPM_IH4     (3rd-order accurate)
                                ! PQM_IH4IH3  (4th-order accurate)
                                ! PQM_IH6IH5  (5th-order accurate)

! === module MOM_grid_init ===
GRID_CONFIG = "mosaic"        !
                                ! A character string that determines the method for defining the horizontal
                                ! grid.  Current options are:
                                !     mosaic - read the grid from a mosaic (supergrid)
                                !              file set by GRID_FILE.
                                !     cartesian - use a (flat) Cartesian grid.
                                !     spherical - use a simple spherical grid.
                                !     mercator - use a Mercator spherical grid.
GRID_FILE = "hgrid.nc"    !
                                ! Name of the file from which to read horizontal grid data.

!SOUTHLAT = -70.0                !   [degrees]
                                ! The southern latitude of the domain.
!LENLAT = 40.0                   !   [degrees]
                                ! The latitudinal length of the domain.
!WESTLON = 0.0                   !   [degrees]
                                ! the western longitude of the domain.
!LENLON = 80.0                   !   [degrees]
                                ! The longitudinal length of the domain.
!ISOTROPIC = True                !   [Boolean] default = False
                                ! If true, an isotropic grid on a sphere (also known as a Mercator grid) is
                                ! used. With an isotropic grid, the meridional extent of the domain (LENLAT),
                                ! the zonal extent (LENLON), and the number of grid points in each direction are
                                ! _not_ independent. In MOM the meridional extent is determined to fit the zonal
                                ! extent and the number of grid points, while grid is perfectly isotropic.


!AXIS_UNITS = "degrees"          !   default = "degrees",
                                ! The units for the Cartesian axes. Valid entries are:
                                !     degrees - degrees of latitude and longitude
                                !     m - meters
                                !     k - kilometers

TOPO_CONFIG = "file"            !
                                ! This specifies how bathymetry is specified:
                                !     file - read bathymetric information from the file
                                !       specified by (TOPO_FILE).
                                !     flat - flat bottom set to MAXIMUM_DEPTH.
                                !     bowl - an analytically specified bowl-shaped basin
                                !       ranging between MAXIMUM_DEPTH and MINIMUM_DEPTH.
                                !     spoon - a similar shape to 'bowl', but with an vertical
                                !       wall at the southern face.
                                !     halfpipe - a zonally uniform channel with a half-sine
                                !       profile in the meridional direction.
                                !     benchmark - use the benchmark test case topography.
                                !     Neverland - use the Neverland test case topography.
                                !     DOME - use a slope and channel configuration for the
                                !       DOME sill-overflow test case.
                                !     ISOMIP - use a slope and channel configuration for the
                                !       ISOMIP test case.
                                !     DOME2D - use a shelf and slope configuration for the
                                !       DOME2D gravity current/overflow test case.
                                !     Kelvin - flat but with rotated land mask.
                                !     seamount - Gaussian bump for spontaneous motion test case.
                                !     dumbbell - Sloshing channel with reservoirs on both ends.
                                !     shelfwave - exponential slope for shelfwave test case.
                                !     Phillips - ACC-like idealized topography used in the Phillips config.
                                !     dense - Denmark Strait-like dense water formation and overflow.
                                !     USER - call a user modified routine.
TOPO_FILE = "topography.nc" ! default = "topog.nc"
                                ! The file from which the bathymetry is read.
MAXIMUM_DEPTH = 4000.0          !   [m]
                                ! The maximum depth of the ocean.

TOPO_VARNAME = "depth_ridge"          ! default = "depth"
                                ! The name of the bathymetry variable in TOPO_FILE.

!MINIMUM_DEPTH = 0.00001         !   [m] default = 0.0


! === module MOM_state_initialization ===
INIT_LAYERS_FROM_Z_FILE = True  !   [Boolean] default = False
                                ! If true, initialize the layer thicknesses, temperatures, and salinities from a
                                ! Z-space file on a latitude-longitude grid.

! === module MOM_initialize_layers_from_Z ===
TEMP_SALT_Z_INIT_FILE = "TS_init_Z.nc" ! default = "temp_salt_z.nc"
                                ! The name of the z-space input file used to initialize temperatures (T) and
                                ! salinities (S). If T and S are not in the same file, TEMP_Z_INIT_FILE and
                                ! SALT_Z_INIT_FILE must be set.
TEMP_Z_INIT_FILE = "T.nc"
SALT_Z_INIT_FILE = "S.nc"
Z_INIT_FILE_PTEMP_VAR = "temp" ! default = "ptemp"
                                ! The name of the potential temperature variable in TEMP_Z_INIT_FILE.
Z_INIT_FILE_SALT_VAR = "salt"   ! default = "salt"
                                ! The name of the salinity variable in SALT_Z_INIT_FILE.
Z_INIT_ALE_REMAPPING = True     !   [Boolean] default = False
                                ! If True, then remap straight to model coordinate from file.
                                ! With this False, total mass does not remain conserved. 
Z_INIT_REMAP_OLD_ALG = False    !   [Boolean] default = True
                                ! If false, uses the preferred remapping algorithm for initialization. If true,
                                ! use an older, less robust algorithm for remapping.
! === module MOM_diag_mediator ===
NUM_DIAG_COORDS = 2             ! default = 1
                                ! The number of diagnostic vertical coordinates to use.
                                ! For each coordinate, an entry in DIAG_COORDS must be provided.
DIAG_COORDS = "z Z ZSTAR", "rho2 RHO2 RHO" !
                                ! A list of string tuples associating diag_table modules to
                                ! a coordinate definition used for diagnostics. Each string
                                ! is of the form "MODULE_SUFFIX,PARAMETER_SUFFIX,COORDINATE_NAME".

DIAG_COORD_DEF_Z = "FILE:save_dz.nc,dz"    ! default = "UNIFORM"
                                ! Determines how to specify the coordinate resolution. Valid options are:
                                !  PARAM       - use the vector-parameter DIAG_COORD_RES_Z
                                !  UNIFORM[:N] - uniformly distributed
                                !  FILE:string - read from a file. The string specifies
                                !                the filename and variable name, separated
                                !                by a comma or space, e.g. FILE:lev.nc,dz
                                !                or FILE:lev.nc,interfaces=zw
                                !  WOA09[:N]   - the WOA09 vertical grid (approximately)
                                !  FNC1:string - FNC1:dz_min,H_total,power,precision
                                !  HYBRID:string - read from a file. The string specifies
                                !                the filename and two variable names, separated
                                !                by a comma or space, for sigma-2 and dz. e.g.
                                !                HYBRID:vgrid.nc,sigma2,dz

DIAG_COORD_DEF_RHO2 = "RFNC1:35,1032.0,1032.4,1032.6,4.3,1037.5,0.005125" ! default = "WOA09"
                                ! Determines how to specify the coordinate
                                ! resolution. Valid options are:
                                !  PARAM       - use the vector-parameter DIAG_COORD_RES_RHO2
                                !  UNIFORM[:N] - uniformly distributed
                                !  FILE:string - read from a file. The string specifies
                                !                the filename and variable name, separated
                                !                by a comma or space, e.g. FILE:lev.nc,dz
                                !                or FILE:lev.nc,interfaces=zw
                                !  WOA09[:N]   - the WOA09 vertical grid (approximately)
                                !  FNC1:string - FNC1:dz_min,H_total,power,precision
                                !  HYBRID:string - read from a file. The string specifies
                                !                the filename and two variable names, separated
                                !                by a comma or space, for sigma-2 and dz. e.g.
                                !                HYBRID:vgrid.nc,sigma2,dz


! === module MOM_state_initialization === (TS_CONFIG method)
!THICKNESS_CONFIG = "coord"      !
                                ! A string that determines how the initial layer thicknesses are specified for a
                                ! new run:
                                !     file - read interface heights from the file specified
                                !     thickness_file - read thicknesses from the file specified
                                !       by (THICKNESS_FILE).
                                !     coord - determined by ALE coordinate.
                                !     uniform - uniform thickness layers evenly distributed
                                !       between the surface and MAXIMUM_DEPTH.
                                !     list - read a list of positive interface depths.
                                !     DOME - use a slope and channel configuration for the
                                !       DOME sill-overflow test case.
                                !     ISOMIP - use a configuration for the
                                !       ISOMIP test case.
                                !     benchmark - use the benchmark test case thicknesses.
                                !     Neverland - use the Neverland test case thicknesses.
                                !     search - search a density profile for the interface
                                !       densities. This is not yet implemented.
                                !     circle_obcs - the circle_obcs test case is used.
                                !     DOME2D - 2D version of DOME initialization.
                                !     adjustment2d - 2D lock exchange thickness ICs.
                                !     sloshing - sloshing gravity thickness ICs.
                                !     seamount - no motion test with seamount ICs.
                                !     dumbbell - sloshing channel ICs.
                                !     soliton - Equatorial Rossby soliton.
                                !     rossby_front - a mixed layer front in thermal wind balance.
                                !     USER - call a user modified routine.

!ADJUST_THICKNESS=TRUE           ! Corrects thicknesses for topography

!VELOCITY_CONFIG = "zero"        ! default = "zero"
                                ! A string that determines how the initial velocities are specified for a new
                                ! run:
                                !     file - read velocities from the file specified
                                !       by (VELOCITY_FILE).
                                !     zero - the fluid is initially at rest.
                                !     uniform - the flow is uniform (determined by
                                !       parameters INITIAL_U_CONST and INITIAL_V_CONST).
                                !     rossby_front - a mixed layer front in thermal wind balance.
                                !     soliton - Equatorial Rossby soliton.
                                !     USER - call a user modified routine.

!VELOCITY_FILE = "4th-deg_velocity.nc" !
!INITIAL_U_CONST = 0.5           !   [m s-1]
!INITIAL_V_CONST = 0             !   [m s-1]

!TS_CONFIG = "file"              !
                                ! A string that determines how the initial tempertures and salinities are
                                ! specified for a new run:
                                !     file - read velocities from the file specified
                                !       by (TS_FILE).
                                !     fit - find the temperatures that are consistent with
                                !       the layer densities and salinity S_REF.
                                !     TS_profile - use temperature and salinity profiles
                                !       (read from TS_FILE) to set layer densities.
                                !     benchmark - use the benchmark test case T & S.
                                !     linear - linear in logical layer space.
                                !     DOME2D - 2D DOME initialization.
                                !     ISOMIP - ISOMIP initialization.
                                !     adjustment2d - 2d lock exchange T/S ICs.
                                !     sloshing - sloshing mode T/S ICs.
                                !     seamount - no motion test with seamount ICs.
                                !     dumbbell - sloshing channel ICs.
                                !     rossby_front - a mixed layer front in thermal wind balance.
                                !     SCM_CVMix_tests - used in the SCM CVMix tests.
                                !     USER - call a user modified routine.

!TS_FILE = "TS.nc"       !
                                ! The initial condition file for temperature.
!TEMP_IC_VAR = "T"               ! default = "PTEMP"
                                ! The initial condition variable for potential temperature.
!SALT_IC_VAR = "S"               ! default = "SALT"
                                ! The initial condition variable for salinity.

! =========== SPONGE CONFIG ====================== !
SPONGE = True                   !   [Boolean] default = False
                                ! If true, sponges may be applied anywhere in the domain. The exact location and
                                ! properties of those sponges are specified via SPONGE_CONFIG.
SPONGE_CONFIG = "file"          ! default = "file"
                                ! A string that sets how the sponges are configured:
                                !     file - read sponge properties from the file
                                !       specified by (SPONGE_FILE).
                                !     ISOMIP - apply ale sponge in the ISOMIP case
                                !     RGC - apply sponge in the rotating_gravity_current case
                                !     DOME - use a slope and channel configuration for the
                                !       DOME sill-overflow test case.
                                !     BFB - Sponge at the southern boundary of the domain
                                !       for buoyancy-forced basin case.
                                !     USER - call a user modified routine.
SPONGE_DAMPING_FILE = "sponge.nc" !
                                ! The name of the file with the sponge damping rates.
SPONGE_STATE_FILE = "sponge_IC.nc" !
                                ! The name of the file with the state to damp toward.

!SOC_SPONGE_FILE = "sponge_IC.nc" ! Related to SOC sponge module
!SOC_DAMPING_FILE = "sponge.nc"
!SPONGE_H_VAR = "h"

SPONGE_PTEMP_VAR = "Temp"          ! default = "PTEMP"
                                ! The name of the potential temperature variable in SPONGE_STATE_FILE.
SPONGE_SALT_VAR = "Salt"           ! default = "SALT"
                                ! The name of the salinity variable in SPONGE_STATE_FILE.
SPONGE_ETA_VAR = "eta"          ! default = "ETA"
                                ! The name of the interface height variable in SPONGE_STATE_FILE.
SPONGE_IDAMP_VAR = "idampseven"      ! default = "IDAMP"
                                ! The name of the inverse damping rate variable in SPONGE_DAMPING_FILE.
!SPONGE_UV = True                !   [Boolean] default = False
                                ! Apply sponges in u and v, in addition to tracers.
!NEW_SPONGES = True            ! Default = "False"

!SPONGE_DATA_ONGRID = True 

! === module MOM_tracer_flow_control ===
!USE_generic_tracer=True         !

! === module MOM_CoriolisAdv ===
BOUND_CORIOLIS = True            !
CORIOLIS_SCHEME = "ARAKAWA_HSU90" !
CORIOLIS_EN_DIS = True          !   [Boolean] default = False
                                ! If true, two estimates of the thickness fluxes are used to estimate the
                                ! Coriolis term, and the one that dissipates energy relative to the other one is
                                ! used.
! === module MOM_thickness_diffuse ===
!KHTH = 1.0E-04                  !   [m2 s-1] default = 0.0
                                ! The background horizontal thickness diffusivity.
!BE = 0.7                        !   [nondim] default = 0.6
                                ! If SPLIT is true, BE determines the relative weighting of a  2nd-order
                                ! Runga-Kutta baroclinic time stepping scheme (0.5) and a backward Euler scheme
                                ! (1) that is used for the Coriolis and inertial terms.  BE may be from 0.5 to
                                ! 1, but instability may occur near 0.5. BE is also applicable if SPLIT is false
                                ! and USE_RK2 is true.

! === module MOM_set_visc ===
BOTTOMDRAGLAW = True            !   [Boolean] default = True
                                ! If true, the bottom stress is calculated with a drag law of the form
                                ! c_drag*|u|*u. The velocity magnitude may be an assumed value or it may be
                                ! based on the actual velocity in the bottommost HBBL, depending on LINEAR_DRAG.
CDRAG = 0.003                   !   [nondim] default = 0.003
                                ! CDRAG is the drag coefficient relating the magnitude of the velocity field to
                                ! the bottom stress. CDRAG is only used if BOTTOMDRAGLAW is defined.
LINEAR_DRAG = False             !   [Boolean] default = False
                                ! If LINEAR_DRAG and BOTTOMDRAGLAW are defined the drag law is
                                ! cdrag*DRAG_BG_VEL*u.
DRAG_BG_VEL = 0.01              !   [m s-1] default = 0.0
                                ! DRAG_BG_VEL is either the assumed bottom velocity (with LINEAR_DRAG) or an
                                ! unresolved  velocity that is combined with the resolved velocity to estimate
                                ! the velocity magnitude.  DRAG_BG_VEL is only used when BOTTOMDRAGLAW is
                                ! defined.
HBBL = 10                       ! [m] 
                                ! The thickness of a bottom boundary layer with a viscosity of KVBBL if
                                ! BOTTOMDRAGLAW is not defined, or the thickness over which near-bottom
                                ! velocities are averaged for the drag law if BOTTOMDRAGLAW is defined but
                                ! LINEAR_DRAG is not.
KV = 1.0E-04                    !   [m2 s-1]
                                ! The background kinematic viscosity in the interior. The molecular value, ~1e-6
                                ! m2 s-1, may be used.
BBL_THICK_MIN = 0.1             !   [m] default = 0.0
                                ! The minimum bottom boundary layer thickness that can be used with
                                ! BOTTOMDRAGLAW. This might be Kv/(cdrag*drag_bg_vel) to give Kv as the minimum
                                ! near-bottom viscosity.
ETA_TOLERANCE = 1.0E-06

! === module MOM_hor_visc ===
LAPLACIAN = False               !   [Boolean] default = False
                                ! If true, use a Laplacian horizontal viscosity.